27
CN093.pdb
C          4.39000       -8.10400       -0.02300
C          4.47800       -9.50100       -0.03900
C          5.71700      -10.14300       -0.03100
C          6.85700       -9.35300       -0.00600
C          6.75900       -7.98000        0.01000
C          5.54300       -7.31800        0.00200
N          8.14000       -9.73100        0.00600
C          8.86400       -8.62100        0.02900
C          8.05300       -7.51300        0.03200
C         10.23800       -8.49700        0.04800
N         10.74400       -7.27200        0.07000
C          9.97600       -6.18100        0.07300
C          8.58700       -6.24100        0.05400
C         11.11300       -9.65400        0.04500
C         12.42900       -9.46800        0.06400
C         10.64600       -4.97700        0.09700
O         12.00400       -5.06800        0.11300
O         10.04300       -3.90300        0.10200
H          3.43700       -7.63800       -0.02900
H          3.58700      -10.08100       -0.05700
H          5.78300      -11.20400       -0.04300
H          5.49000       -6.26000        0.01400
H          7.98400       -5.36600        0.05700
H         10.70600      -10.63600        0.02800
H         12.81900       -8.47900        0.08100
H         13.08600      -10.29800        0.06200
H         12.22400       -6.04700        0.10400
