42
CN277.pdb
C         -1.48300       -0.42300        0.97200
C         -1.84000        0.94900        0.28400
C         -2.60400        0.77900       -1.10600
C         -0.56100       -1.23300        0.06100
C          0.73900       -0.40100       -0.28800
C          0.73900        0.95700       -0.31800
C         -0.54500        1.71100       -0.01000
O         -0.58100        2.95000       -0.02600
O          2.03100        1.63400       -0.66600
C          2.10000        3.12400       -0.73300
C          2.05600       -1.10200       -0.62700
C          2.74300       -1.49500        0.71800
C          4.13100       -2.15100        0.49900
O         -2.64800       -1.22700        1.28100
C          1.81500       -2.37400       -1.50900
C         -2.71900        1.79400        1.22000
C         -3.97500        0.04700       -1.01900
O         -0.25200       -2.47200        0.71600
H         -0.95200       -0.20800        1.91100
H         -2.78100        1.77800       -1.51700
H         -1.96500        0.22000       -1.80000
H         -1.08700       -1.46900       -0.87800
H          3.12500        3.42600       -0.99500
H          1.83500        3.55800        0.24500
H          1.40600        3.50300       -1.50200
H          2.71500       -0.39600       -1.14700
H          2.87800       -0.58400        1.31700
H          2.09700       -2.19600        1.26600
H          4.57700       -2.38800        1.47600
H          4.78400       -1.45100       -0.03800
H          4.02900       -3.07400       -0.08300
H         -3.24600       -0.73800        1.90100
H          2.77500       -2.85100       -1.75500
H          1.31300       -2.07700       -2.44100
H          1.18700       -3.09500       -0.97200
H         -2.93400        2.75600        0.74000
H         -2.18100        1.96400        2.16200
H         -3.65900        1.26800        1.43000
H         -4.41300       -0.01300       -2.02200
H         -4.65700        0.59700       -0.35900
H         -3.83100       -0.96800       -0.62900
H          0.19300       -2.25100        1.56700
