65
CN278.pdb
C         -3.26600        2.81800       -0.15900
C         -3.26900        1.45500       -0.03600
C         -2.08800        0.69500        0.04100
C         -0.86500        1.38900       -0.00600
C         -0.89300        2.78900       -0.16600
C         -2.09500        3.49600       -0.24200
C         -2.08100       -0.69400        0.24500
C         -0.85500       -1.38100        0.28800
C          0.37300       -0.71300        0.10200
C          0.37100        0.71400        0.09000
C         -3.25300       -1.44800        0.44200
C         -3.23200       -2.78400        0.73900
C         -2.05400       -3.45300        0.80400
C         -0.86500       -2.76300        0.55900
C          0.36800       -3.53000        0.65500
C          1.66300       -2.95400        0.13400
C          1.69300       -1.65400       -0.15800
C          1.71600        1.65400        0.30800
C          1.65700        2.96800        0.09300
C          0.32700        3.56900       -0.28800
O         -4.50200        1.09300       -0.05900
O         -4.49700       -1.11500        0.36400
O          0.21000        4.76900       -0.56000
O          0.28000       -4.70500        1.02900
O          2.85800        3.73200        0.34400
C          2.77600        5.18500        0.17200
O          2.84200       -3.73200       -0.16600
C          2.76700       -5.17500        0.08200
C          2.89900       -1.12800       -1.16900
C          4.48500       -1.44800       -1.03200
C          5.17800       -0.71100       -2.20400
O          4.88900       -2.80700       -1.15500
C          3.00700        1.11100        1.20200
C          4.57600        1.41400        0.91300
C          5.37200        0.67200        2.01700
O          5.00200        2.76800        0.99200
C         -4.84300       -0.11200       -0.39000
O         -2.19700        4.88000       -0.40700
O         -2.13800       -4.81300        1.10400
H         -4.18800        3.34400       -0.22200
H         -4.14500       -3.30400        0.89400
H          3.75500        5.63900        0.39300
H          2.02100        5.59700        0.85800
H          2.49400        5.41900       -0.86600
H          3.72600       -5.64700       -0.18700
H          1.96400       -5.61300       -0.52800
H          2.55900       -5.35800        1.14700
H          2.63000       -1.51900       -2.16000
H          2.79700       -0.05000       -1.21400
H          4.85500       -1.05500       -0.08800
H          6.26800       -0.85800       -2.13800
H          4.95000        0.36200       -2.14800
H          4.81200       -1.11300       -3.16100
H          4.51200       -3.34300       -0.42700
H          2.84100        1.50800        2.21300
H          2.89800        0.03500        1.25600
H          4.85100        1.01600       -0.06100
H          6.45200        0.80800        1.84800
H          5.13000       -0.39800        1.98500
H          5.10200        1.07800        3.00300
H          4.55500        3.30900        0.30500
H         -5.95500       -0.11700       -0.41800
H         -4.47300       -0.30900       -1.40700
H         -3.14900        5.22600       -0.43600
H         -3.08000       -5.14900        1.26800
