37
CN286.pdb
N          0.98100       -0.82200        0.46200
C          0.94900        0.43700       -0.30400
C          2.23300        1.15800       -0.14600
N          3.37900        0.42900        0.01600
C          3.38100       -0.95900        0.05500
C          2.12700       -1.50100        0.62700
C          4.70100        0.95200        0.22900
C          5.53800       -0.33900       -0.04200
C          4.69700       -1.27200        0.79000
C         -0.23400        1.33700        0.05200
O          2.26600        2.39300       -0.15000
O          2.16500       -2.55400        1.27600
C         -1.51700        0.63400       -0.20900
C         -2.78900        1.09400        0.05700
C         -3.65700        0.11500       -0.35800
N         -2.97800       -0.91500       -0.86000
C         -1.68100       -0.62200       -0.78200
C         -3.22700        2.28100        0.62000
C         -4.60500        2.45700        0.75500
C         -5.49600        1.46400        0.33300
C         -5.02800        0.27600       -0.23000
H          0.14000       -1.17800        0.86500
H          0.86500        0.16500       -1.36700
H          3.47500       -1.30800       -0.98600
H          4.96400        1.80400       -0.40700
H          4.78600        1.23800        1.28700
H          5.46500       -0.64000       -1.09800
H          6.58500       -0.25300        0.26700
H          4.66600       -0.90800        1.82600
H          4.97300       -2.33300        0.76000
H         -0.19900        1.65800        1.10300
H         -0.21300        2.24800       -0.55900
H         -0.89800       -1.26100       -1.11100
H         -2.54400        3.02600        0.93500
H         -4.98300        3.35400        1.18100
H         -6.54200        1.61600        0.44400
H         -5.70200       -0.48100       -0.55100
