25
CN281.pdb
C          5.01000       -7.44700       -0.00100
C          5.03900       -8.84600       -0.00100
C          6.25100       -9.54000       -0.00100
C          7.42400       -8.79800       -0.00100
C          7.38100       -7.42200       -0.00000
C          6.19500       -6.71100       -0.00000
N          8.69200       -9.22400       -0.00100
C          9.46600       -8.13400        0.00000
C          8.69000       -7.00000        0.00000
C         10.85000       -8.02200        0.00000
N         11.38000       -6.79800        0.00100
C         10.64200       -5.68100        0.00100
C          9.25000       -5.73700        0.00100
C         11.72700       -9.19700        0.00000
C         13.21200       -9.01800        0.00000
O         11.24500      -10.33100       -0.00000
H          4.07700       -6.94200       -0.00100
H          4.12500       -9.38900       -0.00100
H          6.26900      -10.60400       -0.00100
H          6.18900       -5.65100        0.00000
H         11.12600       -4.74600        0.00100
H          8.65100       -4.85500        0.00100
H         13.72500       -9.99100        0.00100
H         13.49400       -8.42200        0.88000
H         13.49500       -8.42300       -0.88000
