29
CN337.pdb
C          7.94500       -8.61900        0.66200
C          9.36200       -8.69500        0.20900
C          9.75800       -7.26600        0.06900
C          8.50900       -6.51800       -0.10800
C          7.45400       -7.30300        0.18100
C          7.29100       -9.79800       -0.10400
O          8.40600      -10.63100       -0.43600
C          9.21800       -9.47900       -1.04800
O         10.87700       -6.82200       -0.18500
O          6.10200       -6.98400        0.08200
C          5.87300       -5.66600       -0.42700
O          6.05500      -10.32500        0.43900
C         10.24400       -9.67600        1.11900
H          8.03400       -8.64000        1.75800
O         11.65600       -9.98700        0.69000
C         12.68300       -8.95600        0.85700
H          8.46000       -5.52800       -0.44600
H          7.08500       -9.41400       -1.11300
H          8.59600       -8.95400       -1.78700
H         10.19200       -9.73800       -1.47600
H          4.78200       -5.47800       -0.49200
H          6.31600       -5.58500       -1.43000
H          6.32800       -4.92600        0.24400
H          6.26100      -10.77600        1.32300
H         10.27400       -9.27600        2.13900
H          9.71700      -10.63500        1.13800
H         13.64700       -9.36000        0.52000
H         12.75400       -8.68300        1.91800
H         12.44400       -8.06900        0.26500
