32
CN338.pdb
C          4.14600       -7.54700        0.01000
C          4.21100       -8.93300        0.17700
C          5.44600       -9.55800        0.22400
C          6.59800       -8.79900        0.10600
C          6.54100       -7.42900       -0.06200
C          5.31100       -6.80200       -0.10900
C          7.85800       -9.40900        0.15300
O          8.96200       -8.67400        0.04000
C          8.93900       -7.32900       -0.14100
C          7.78000       -6.67600       -0.19300
O          7.97700      -10.62200        0.30200
C         10.24700       -6.61500       -0.29400
C         11.40600       -7.57900        0.05500
O          2.96300       -6.83900       -0.04800
O          5.54100      -10.92700        0.38400
C         12.75500       -6.85200       -0.13000
O         11.35000       -8.73300       -0.80500
C          1.74900       -7.60900        0.07500
H          3.34500       -9.52200        0.26900
H          5.26000       -5.75700       -0.23800
H          7.75500       -5.63000       -0.33600
H         10.33900       -6.27600       -1.33600
H         10.25200       -5.71900        0.34100
H         11.30300       -7.90500        1.09900
H          4.65300      -11.33600        0.45400
H         13.57800       -7.53700        0.12300
H         12.79200       -5.97500        0.53300
H         12.85800       -6.52600       -1.17600
H         10.45200       -9.21500       -0.65700
H          0.87900       -6.93000        0.01300
H          1.73600       -8.12800        1.04500
H          1.69300       -8.34600       -0.74000
