50
CN335.pdb
C          8.82900       -8.93600       -1.20300
O          9.65600       -9.62500       -0.25200
C          9.56500      -10.94200       -0.47300
C          8.76500      -11.15700       -1.58600
O          8.37500       -9.98300       -2.06900
C          7.63500       -8.46300       -0.46600
C          9.60100       -7.78100       -1.94500
C         10.15300       -6.71800       -0.99200
O          8.47000      -12.26300       -2.04700
C         10.21400      -12.02100        0.33400
C         11.68600      -11.73600        0.45000
C         12.12500      -10.60400        1.12700
C         13.48800      -10.34800        1.24300
C         14.41000      -11.22400        0.68000
C         13.97100      -12.35600        0.00100
C         12.60700      -12.61100       -0.11400
O          6.55200       -9.30000       -0.43100
O          7.61600       -7.37100        0.12000
C          5.50300       -8.71500        0.31100
C          9.75900       -5.39200       -1.14500
C         10.25700       -4.40800       -0.29600
C         11.15400       -4.75100        0.70900
C         11.55600       -6.07300        0.86400
C         11.05600       -7.05700        0.01400
C          4.30300       -9.65800        0.29400
C          3.16100       -9.02900        1.09700
C          1.95100       -9.97300        1.07600
H         10.45500       -8.26100       -2.44900
H          8.93600       -7.30600       -2.68400
H          9.80300      -11.91900        1.34900
H         10.01400      -13.01700       -0.10000
H         11.41300       -9.93800        1.55500
H         13.82900       -9.48300        1.76400
H         15.45400      -11.03000        0.76900
H         14.68100      -13.02700       -0.43000
H         12.26800      -13.47600       -0.63200
H          5.83100       -8.55000        1.34400
H          5.21700       -7.75000       -0.14200
H          9.07600       -5.13000       -1.91400
H          9.95500       -3.38300       -0.41300
H         11.53300       -4.00300        1.35700
H         12.25400       -6.32500        1.64000
H         11.36200       -8.06700        0.12900
H          3.98000       -9.82000       -0.74400
H          4.58500      -10.62000        0.74400
H          3.48700       -8.87000        2.13500
H          2.88400       -8.06500        0.64700
H          1.12900       -9.52600        1.65100
H          2.23200      -10.93700        1.52200
H          1.62900      -10.12900        0.03600
