27
CN345.pdb
C          5.79600       -7.40800       -0.27600
C          5.83000       -8.79300       -0.16200
C          7.03500       -9.44500        0.07400
C          8.21300       -8.69900        0.19000
C          8.18200       -7.31000        0.07300
C          6.96500       -6.66500       -0.15900
C          9.51400       -9.34600        0.47100
O         10.70800       -8.64100        0.37100
C         10.61800       -7.38500       -0.32600
C          9.49600       -6.52500        0.22000
O          9.55000      -10.51200        0.87000
C          6.87400       -5.16800       -0.28200
O          7.04000      -10.85400        0.18600
C         11.95500       -6.64100       -0.19000
O          9.76000       -6.24700        1.59900
H          4.86700       -6.91000       -0.45100
H          4.92800       -9.35700       -0.25200
H         10.41800       -7.58500       -1.38900
H          9.43200       -5.57500       -0.31200
H          7.30000       -4.70600        0.62200
H          5.82700       -4.84800       -0.43000
H          7.50200       -4.84000       -1.12500
H          6.14100      -11.20800        0.08100
H         11.89900       -5.69200       -0.73700
H         12.76300       -7.25900       -0.60700
H         12.15500       -6.44200        0.87300
H          9.00400       -5.75300        1.97600
