26
CN342.pdb
C          6.48900       -6.96000       -0.10900
C          6.51700       -8.34800       -0.17600
C          7.72000       -9.02700       -0.02700
C          8.90000       -8.31900        0.18300
C          8.87600       -6.93000        0.25800
C          7.66400       -6.24900        0.11100
C         10.19400       -9.02600        0.36000
O         11.39600       -8.33500        0.34400
C         11.31600       -6.98300       -0.14600
C         10.19200       -6.21000        0.52800
O         10.21500      -10.23700        0.58800
C          7.58200       -4.74900        0.19400
O          7.73900      -10.40800       -0.09100
C         12.66100       -6.28700        0.11400
H          5.55500       -6.43800       -0.22100
H          5.61900       -8.88800       -0.33900
H         11.12000       -7.00600       -1.22800
H         10.15500       -5.18000        0.16900
H         10.38200       -6.20600        1.60900
H          8.00100       -4.41900        1.15600
H          6.53800       -4.40500        0.08100
H          8.22100       -4.31300       -0.59000
H          6.84100      -10.75300       -0.23900
H         12.62000       -5.26100       -0.27300
H         13.46500       -6.84000       -0.39400
H         12.85800       -6.26400        1.19600
