31
CN346.pdb
C         -2.35400        0.73900       -0.39100
C         -2.46500       -0.69400        0.12300
C         -1.16700       -1.38100        0.14700
C         -0.01300       -0.68700        0.08600
C          0.01600        0.79700       -0.12200
C         -1.26200        1.49900        0.35600
C          1.24100       -1.37100        0.19300
O          2.46500       -0.70300        0.15600
C          2.45400        0.68100       -0.23000
C          1.30700        1.41800        0.43600
O          1.24800       -2.57600        0.43700
C         -1.48000        1.51900        1.91400
O         -1.18500       -2.71300        0.30200
C          3.80500        1.29500        0.17400
O         -3.58700        1.32500       -0.23000
H          0.04200        0.92900       -1.21000
H         -2.08800        0.74500       -1.45700
H         -2.80200       -0.67400        1.16600
H         -3.20500       -1.28200       -0.43400
H         -1.21400        2.53800        0.01400
H          2.32100        0.76100       -1.31700
H          1.33300        2.48000        0.16000
H          1.37200        1.31900        1.52900
H         -0.65700        2.06600        2.39000
H         -1.50600        0.49900        2.31700
H         -2.43300        2.02300        2.14000
H         -0.37100       -3.20500        0.33400
H          3.82600        2.35200       -0.12200
H          4.61900        0.75500       -0.33100
H          3.93300        1.21700        1.26300
H         -3.89100        1.35300        0.72500
