26
CN341.pdb
C         11.00800       -7.22100       -1.19500
C         11.48900       -7.28300        0.26500
C         12.87400       -7.92800        0.29700
C          9.63700       -6.66600       -1.24800
O         10.93200       -8.55900       -1.63800
N          8.64400       -7.34700       -0.61500
C          7.43100       -6.97700       -0.67100
C          6.39100       -7.77900        0.06900
C          7.07600       -8.61700        1.12900
O          6.55500       -8.71900        2.40500
O          8.14400       -9.19600        0.87300
O          9.38500       -5.64800       -1.89300
C         11.58200       -5.86700        0.86600
H         11.70600       -6.63000       -1.81100
H         10.78800       -7.88700        0.85600
H         13.22100       -7.98300        1.33500
H         13.57100       -7.32100       -0.29500
H         12.81600       -8.94100       -0.12700
H         10.28000       -9.04400       -1.06000
H          7.15700       -6.12300       -1.23500
H          5.57400       -7.15000        0.46700
H          5.96000       -8.46800       -0.67700
H          5.68200       -8.21800        2.50200
H         11.94300       -5.93600        1.90400
H         10.59200       -5.39000        0.85700
H         12.28600       -5.26800        0.27400
