27
CN344.pdb
C          6.32000       -7.42200       -0.19600
C          6.36700       -8.80900       -0.18000
C          7.58200       -9.45600       -0.00700
C          8.75500       -8.71900        0.13900
C          8.72000       -7.32400        0.12400
C          7.48400       -6.67600       -0.04100
C         10.05500       -9.41800        0.34900
O         11.25500       -8.72900        0.29900
C         11.18700       -7.42200       -0.27600
C         10.07300       -6.57800        0.33200
O         10.07800      -10.62200        0.64200
C          7.32900       -5.17900       -0.04500
O          7.62000      -10.84100        0.02000
C         12.53900       -6.72300       -0.06200
O         10.10500       -5.27900       -0.27900
H          5.37600       -6.92200       -0.32200
H          5.47200       -9.37400       -0.29300
H         10.99600       -7.52400       -1.35400
H         10.25700       -6.48000        1.41000
H          7.82900       -4.76000        0.84200
H          6.26300       -4.89300       -0.07600
H          7.85800       -4.77400       -0.92100
H          6.72200      -11.21700       -0.09100
H         12.50900       -5.72700       -0.52200
H         13.33800       -7.31900       -0.52500
H         12.73200       -6.62300        1.01600
H          9.96900       -5.39900       -1.24700
