33
CN362.pdb
C          5.80400       -6.62800        0.13600
C          5.84700       -7.97400        0.13000
C          6.91100       -8.92100       -0.12700
O          8.07100       -8.54600       -0.53600
C          8.94000       -7.98700        0.31800
C          9.34100       -6.70000       -0.30300
N          8.32000       -5.65800       -0.25800
C          6.96600       -5.56200       -0.09100
O          6.64100      -10.12700       -0.12900
C          4.36200       -6.10700        0.41600
C          3.30000       -7.22000        0.25900
C          3.91900       -4.81300       -0.31300
O          6.61700       -4.38000       -0.07900
C         10.57000       -6.13000        0.42600
O         10.96800       -4.91400       -0.21100
C         11.73200       -7.14200        0.36200
H          4.89200       -8.44300        0.36500
H          8.46500       -7.81100        1.28300
H          9.80900       -8.63100        0.45200
H          9.60700       -6.88300       -1.34400
H          8.75600       -4.69100       -0.39500
H          4.35300       -5.85300        1.47600
H          2.31100       -6.81100        0.46400
H          3.51100       -8.02600        0.96100
H          3.32800       -7.60900       -0.75900
H          2.89700       -4.56600       -0.02700
H          3.96600       -4.96800       -1.39100
H          4.58200       -3.99400       -0.03500
H         10.31700       -5.93100        1.46700
H         11.21000       -5.10700       -1.21400
H         12.60000       -6.73300        0.88000
H         11.98900       -7.33600       -0.67900
H         11.43000       -8.07400        0.84000
