33
CN394.pdb
C         -1.63600        1.16900        0.51500
C         -1.38400       -0.36300        1.05800
C         -0.63300       -0.92900        0.02400
C          0.80300       -0.14000        0.17700
C          0.69500        1.42900        0.51700
C         -0.38600        1.88600       -0.26000
O          1.63200       -0.62200        1.22800
O          1.95400        1.97100        0.26300
C         -0.63900        3.39700       -0.25700
C         -0.36700       -2.47000        0.04700
C          0.49200       -2.89400       -1.16800
C         -1.70200       -3.24900       -0.03400
O         -0.16300        1.49900       -1.65900
H         -2.50900        1.26300       -0.14800
H         -1.84300        1.70000        1.45600
H         -0.76900       -0.43300        1.96800
H         -2.36600       -0.82100        1.23000
H         -1.17600       -0.66100       -0.89600
H          1.29600       -0.31700       -0.78900
H          0.39400        1.63900        1.55800
H          1.19600       -0.47300        2.10300
H          2.62300        1.53400        0.85600
H          0.22900        3.91300       -0.69500
H         -0.78500        3.73900        0.77800
H         -1.53700        3.61800       -0.84800
H          0.15700       -2.73100        0.97700
H          0.65600       -3.97800       -1.13300
H          1.46400       -2.38400       -1.15000
H         -0.04000       -2.63500       -2.09500
H         -1.49400       -4.33200       -0.01400
H         -2.21900       -2.99600       -0.97200
H         -2.34200       -2.98800        0.81900
H         -0.04400        0.55000       -1.79300
