 65
 CN275.pdb
  C    -2.55997750     2.63567774     1.47372160  
  C    -2.64039101     1.43444121     0.78239225  
  C    -1.50324663     0.68533232     0.34615872  
  C    -0.25360871     1.32846020     0.52865482  
  C    -0.12953777     2.57216912     1.21392224  
  C    -1.28700952     3.18649877     1.71365447  
  C    -1.52327530    -0.67279694    -0.17335359  
  C    -0.29170568    -1.37357981    -0.29145103  
  C     0.97626532    -0.70800095     0.01889429  
  C     0.98378437     0.66302301     0.12235943  
  C    -2.69058910    -1.41412773    -0.53779970  
  C    -2.66639580    -2.74324726    -0.95022934  
  C    -1.42296522    -3.38265782    -1.07779273  
  C    -0.22759140    -2.70097705    -0.80335891  
  C     1.06368502    -3.35345851    -1.09464989  
  C     2.20562103    -2.79946732    -0.29135597  
  C     2.15783421    -1.54868751     0.24256262  
  C     2.14608812     1.51710423    -0.14298608  
  C     2.24835603     2.71829466     0.48710174  
  C     1.19090383     3.18933037     1.44864947  
  O    -3.95439384     1.06098897     0.58257556  
  O    -3.99048323    -0.96516697    -0.51329762  
  O     1.41633531     4.00298131     2.31813753  
  O     1.20472571    -4.24699324    -1.90177897  
  O     3.33549176     3.48557654     0.15107510  
  C     3.56100494     4.71270968     0.89795746  
  O     3.32786562    -3.53493762    -0.00034947  
  C     3.46973358    -4.83978622    -0.62623876  
  C     3.23221052    -1.10747929     1.19354646  
  C     2.93019002    -1.60986600     2.62386431  
  C     4.11960252    -1.38585508     3.55473315  
  O     1.77073874    -0.95702768     3.15503763  
  C     3.11838319     1.13147918    -1.21798704  
  C     2.65515541     1.67057606    -2.58964213  
  C     3.73678423     1.49164376    -3.65201086  
  O     1.45166669     1.01513263    -3.01207891  
  C    -4.26588516     0.42402806    -0.65332163  
  O    -1.13238686     4.35094369     2.39231234  
  O    -1.32553625    -4.67659998    -1.47528956  
  H    -3.47114726     3.12698347     1.80750029  
  H    -3.60117300    -3.25147141    -1.17669072  
  H     4.49252296     5.07147377     0.44638915  
  H     3.67895200     4.49461815     1.96507866  
  H     2.73488105     5.41155620     0.73648359  
  H     4.44045825    -5.16249885    -0.23408403  
  H     3.47947475    -4.74020426    -1.71724927  
  H     2.66104389    -5.50394508    -0.30689321  
  H     4.21216889    -1.52160494     0.86392207  
  H     3.36358160    -0.00974578     1.20665366  
  H     2.60594515    -2.67769865     2.61738599  
  H     3.83300432    -1.59963461     4.59364475  
  H     4.48662662    -0.35496757     3.52937654  
  H     4.95870726    -2.04325452     3.30352420  
  H     1.88944283     0.00903927     3.20193114  
  H     4.12169142     1.55315240    -0.98189510  
  H     3.26088537     0.03517142    -1.27479446  
  H     2.32015389     2.73226644    -2.51565375  
  H     3.33581583     1.73188107    -4.64621885  
  H     4.11594066     0.46571804    -3.69885843  
  H     4.59150044     2.15300247    -3.47377836  
  H     1.57380950     0.05077601    -3.08390332  
  H    -5.37298627     0.46002344    -0.69751457  
  H    -3.72535277     0.86745939    -1.50303547  
  H    -1.99763328     4.71528954     2.72657326  
  H    -2.21376133    -5.08506393    -1.66623277  
 
