 42
 CN277.pdb
  C    -1.60762353    -0.42243921     1.05086599  
  C    -1.84393534     0.96877468     0.39391035  
  C    -2.25584940     0.90208705    -1.09818085  
  C    -0.49582491    -1.26103739     0.36520867  
  C     0.67490673    -0.44717730    -0.12584146  
  C     0.66966467     0.90600665    -0.09081954  
  C    -0.49018839     1.71220936     0.42411909  
  O    -0.37588195     2.84774015     0.82190334  
  O     1.83111567     1.50954339    -0.52339285  
  C     1.81545062     2.94258879    -0.75525796  
  C     1.90124934    -1.18949195    -0.62491944  
  C     2.86139080    -1.40369375     0.57076530  
  C     4.20645567    -1.98629690     0.15250252  
  O    -2.77226873    -1.24960441     0.93003193  
  C     1.53977619    -2.50291462    -1.32073401  
  C    -2.86305677     1.75663074     1.21958916  
  C    -3.61954259     0.27256653    -1.35348119  
  O    -0.07256223    -2.25165265     1.31244087  
  H    -1.37667076    -0.30192446     2.13454105  
  H    -2.24965492     1.93154691    -1.51338654  
  H    -1.48877075     0.33654828    -1.66709971  
  H    -0.95600555    -1.87592601    -0.45201699  
  H     2.82202667     3.10502902    -1.15934879  
  H     1.67118806     3.47570239     0.19277640  
  H     1.04405749     3.20883272    -1.48037690  
  H     2.42196042    -0.52937699    -1.37260937  
  H     3.02570492    -0.42807676     1.07389822  
  H     2.37652967    -2.06636847     1.31932604  
  H     4.88463245    -2.06723673     1.00984385  
  H     4.70102494    -1.35964447    -0.59913919  
  H     4.09896874    -2.99021280    -0.27520148  
  H    -3.49584548    -0.89467626     1.48670254  
  H     2.42964477    -2.97860065    -1.74795302  
  H     0.82998546    -2.34355868    -2.13884897  
  H     1.09039488    -3.22314395    -0.62142527  
  H    -2.98698614     2.77471728     0.82189774  
  H    -2.54650285     1.87325813     2.26303378  
  H    -3.84891509     1.28001226     1.20738176  
  H    -3.82905402     0.21625214    -2.42778648  
  H    -4.43178234     0.84134415    -0.88972289  
  H    -3.66255346    -0.75439844    -0.95470212  
  H     0.72734701    -1.95593778     1.80669785  
 
