 31
 CN346.pdb
  C    -2.49287721     0.71830401    -0.33930803  
  C    -2.52142678    -0.76282318     0.08663262  
  C    -1.15510322    -1.36119168     0.15619616  
  C     0.01418227    -0.66557024     0.02455142  
  C     0.00850730     0.81294849    -0.25745571  
  C    -1.28761705     1.48823326     0.26094722  
  C     1.28354581    -1.35967120     0.16832480  
  O     2.47744334    -0.70192482     0.08348800  
  C     2.51229532     0.73852725    -0.23108134  
  C     1.28038589     1.45099510     0.32513389  
  O     1.37227841    -2.56948413     0.38695848  
  C    -1.37367019     1.55649709     1.78552604  
  O    -1.21838950    -2.68415612     0.38613275  
  C     3.81834854     1.19077737     0.39680956  
  O    -3.72808975     1.33494414     0.02176149  
  H     0.03006277     0.94676369    -1.37328205  
  H    -2.50873162     0.80648858    -1.45181462  
  H    -3.02502293    -0.87318521     1.07343969  
  H    -3.16842109    -1.34791159    -0.60524730  
  H    -1.32583406     2.53324391    -0.13729960  
  H     2.54916650     0.77291128    -1.34329473  
  H     1.32281871     2.53012277     0.09074084  
  H     1.27139236     1.38198980     1.43208184  
  H    -0.68571379     2.30700552     2.19211278  
  H    -1.11705465     0.59595721     2.25100419  
  H    -2.38312803     1.83332186     2.11727386  
  H    -0.26630091    -3.13020731     0.45952986  
  H     4.07827019     2.21278411     0.10253294  
  H     4.64358617     0.52825521     0.09166228  
  H     3.78490048     1.14643944     1.49345868  
  H    -3.78633435     1.47476233     0.99329524  
 
