 27
 CN344.pdb
  C     6.30551995    -7.41862261    -0.19756551  
  C     6.34163255    -8.80129074    -0.23793769  
  C     7.58344154    -9.44873116    -0.06259485  
  C     8.76900047    -8.72116280     0.13500601  
  C     8.71182246    -7.30692782     0.10916632  
  C     7.48273914    -6.65162479    -0.01727881  
  C    10.02918495    -9.43741765     0.43749413  
  O    11.21568503    -8.73314795     0.26794046  
  C    11.19923850    -7.41351926    -0.33656664  
  C    10.03207959    -6.57488442     0.25019811  
  O    10.16878520   -10.55542435     0.86196716  
  C     7.32870475    -5.16727330     0.04163472  
  O     7.69585756   -10.80604551    -0.09108074  
  C    12.55758971    -6.83332516     0.00703058  
  O    10.05437528    -5.30495514    -0.40527262  
  H     5.34918370    -6.90146256    -0.30831058  
  H     5.43471063    -9.38013941    -0.38892574  
  H    11.06784423    -7.56417825    -1.43065417  
  H    10.21632538    -6.30265973     1.32007014  
  H     8.21041015    -4.66175623     0.47308814  
  H     6.46974891    -4.87207542     0.66021200  
  H     7.17613395    -4.73769288    -0.95786779  
  H     6.81781089   -11.25879306    -0.19390918  
  H    12.59190098    -5.75539365    -0.20334290  
  H    13.35798304    -7.32594760    -0.56033701  
  H    12.79728213    -6.97999647     1.07055463  
  H     9.76787000    -5.38809424    -1.34151459  
 
