 27
 CN345.pdb
  C     5.74511126    -7.41225665    -0.26684016  
  C     5.78563893    -8.79551318    -0.18745446  
  C     7.02573192    -9.42834574     0.04070035  
  C     8.21286866    -8.68757251     0.18128830  
  C     8.14597850    -7.28298069     0.05196624  
  C     6.92083478    -6.63734348    -0.14712418  
  C     9.48638208    -9.36115545     0.51852309  
  O    10.65883567    -8.63863326     0.31257714  
  C    10.61836831    -7.36034480    -0.38436489  
  C     9.44349149    -6.49990150     0.14057259  
  O     9.65395986   -10.44942337     1.00555343  
  C     6.82438240    -5.14887062    -0.22389262  
  O     7.13654736   -10.78389096     0.12080234  
  C    11.97811464    -6.75082088    -0.10492550  
  O     9.65561777    -6.05889793     1.48080022  
  H     4.78842160    -6.90990545    -0.42704495  
  H     4.87852256    -9.38483147    -0.29029832  
  H    10.47482248    -7.59922446    -1.46267206  
  H     9.39756174    -5.53568720    -0.42281519  
  H     7.38712667    -4.66923954     0.59506949  
  H     5.79074945    -4.78727542    -0.14255712  
  H     7.22416763    -4.76462335    -1.17274355  
  H     6.25901609   -11.24278801     0.04487594  
  H    12.29571867    -6.07167184    -0.90235630  
  H    12.73926883    -7.54298943    -0.01056328  
  H    11.98907817    -6.19042966     0.84267475  
  H     9.82933489    -6.83252958     2.07105310  
 
