 45
 CN395.pdb
  C     3.45967334    -5.96470707    -0.64529401  
  C     3.25199565    -7.35055160    -0.64417657  
  C     4.27106958    -8.14026152    -0.09236184  
  C     5.44786460    -7.58667735     0.44708778  
  C     5.61578964    -6.17930501     0.42097732  
  C     4.61958841    -5.36841702    -0.11979719  
  C     6.48631160    -8.44601786     1.03818267  
  O     7.34675219    -8.90939410     0.06269396  
  C     8.05960815    -5.72927188     0.01939485  
  C     6.86346731    -5.56992129     0.98808482  
  O     6.69744089    -8.73467346     2.19266002  
  O     4.16728182    -9.49895165    -0.03278717  
  C     9.39387433    -5.56538080     0.76261854  
  O     2.54002606    -5.09569803    -1.15380439  
  O     7.94662931    -4.77851649    -1.04243246  
  C    10.57818821    -5.76018696    -0.19217136  
  C    11.91507697    -5.46735411     0.49929994  
  C    13.09585601    -5.68312497    -0.45696328  
  C    14.43555941    -5.39152803     0.23145459  
  C    15.61758014    -5.60828318    -0.72382888  
  C    16.95357007    -5.31661481    -0.04438425  
  H     2.35423542    -7.79192150    -1.05211749  
  H     4.72964565    -4.28679543    -0.16883588  
  H     8.04031166    -9.52164281     0.42666786  
  H     8.00674751    -6.70086488    -0.53511431  
  H     6.71059425    -4.49477073     1.21358452  
  H     7.09795255    -6.03318609     1.97271012  
  H     3.32221396    -9.83783898    -0.42782114  
  H     9.45079806    -4.56862471     1.23911497  
  H     9.45548531    -6.29622027     1.59280120  
  H     1.74157185    -5.55360060    -1.52334774  
  H     8.08712302    -3.86627191    -0.72706813  
  H    10.57453320    -6.79389961    -0.59006245  
  H    10.45067491    -5.10380666    -1.07806229  
  H    11.92541985    -4.42757052     0.87917125  
  H    12.03008645    -6.11455060     1.39027885  
  H    13.08677668    -6.72269161    -0.83809186  
  H    12.98136341    -5.03597841    -1.34816389  
  H    14.44736381    -4.35195952     0.61144841  
  H    14.55118008    -6.03770746     1.12274868  
  H    15.60984056    -6.64948434    -1.10170634  
  H    15.50368315    -4.96255856    -1.61654588  
  H    17.79127952    -5.48030798    -0.73146226  
  H    17.11298942    -5.96217281     0.82677747  
  H    17.01192605    -4.27873678     0.30264322  
 
